data_image0
_cell_length_a       5.6351
_cell_length_b       5.62916
_cell_length_c       17.9988
_cell_angle_alpha    90
_cell_angle_beta     90
_cell_angle_gamma    90

_symmetry_space_group_name_H-M    "P 1"
_symmetry_int_tables_number       1

loop_
  _symmetry_equiv_pos_as_xyz
  'x, y, z'

loop_
  _atom_site_label
  _atom_site_occupancy
  _atom_site_fract_x
  _atom_site_fract_y
  _atom_site_fract_z
  _atom_site_thermal_displace_type
  _atom_site_B_iso_or_equiv
  _atom_site_type_symbol
  Li1      1.0000 0.50855  0.00419  0.73789  Biso   1.000  Li
  Li2      1.0000 0.99145  0.50419  0.76211  Biso   1.000  Li
  Li3      1.0000 0.00855  0.00419  0.76211  Biso   1.000  Li
  Li4      1.0000 0.49145  0.50419  0.73789  Biso   1.000  Li
  Li5      1.0000 0.00855  0.00419  0.23789  Biso   1.000  Li
  Li6      1.0000 0.49145  0.50419  0.26211  Biso   1.000  Li
  Li7      1.0000 0.50855  0.00419  0.26211  Biso   1.000  Li
  Li8      1.0000 0.99145  0.50419  0.23789  Biso   1.000  Li
  Sr1      1.0000 0.25498  0.73315  0.50000  Biso   1.000  Sr
  Sr2      1.0000 0.74502  0.23315  0.50000  Biso   1.000  Sr
  Sr3      1.0000 0.75498  0.73315  0.00000  Biso   1.000  Sr
  Sr4      1.0000 0.24502  0.23315  0.00000  Biso   1.000  Sr
  Nb1      1.0000 0.75384  0.73719  0.61535  Biso   1.000  Nb
  Nb2      1.0000 0.24616  0.23719  0.61535  Biso   1.000  Nb
  Nb3      1.0000 0.25384  0.73719  0.88465  Biso   1.000  Nb
  Nb4      1.0000 0.74616  0.23719  0.88465  Biso   1.000  Nb
  Nb5      1.0000 0.25384  0.73719  0.11535  Biso   1.000  Nb
  Nb6      1.0000 0.74616  0.23719  0.11535  Biso   1.000  Nb
  Nb7      1.0000 0.75384  0.73719  0.38465  Biso   1.000  Nb
  Nb8      1.0000 0.24616  0.23719  0.38465  Biso   1.000  Nb
  O1       1.0000 0.50816  0.99485  0.90713  Biso   1.000  O
  O2       1.0000 0.98938  0.51528  0.88220  Biso   1.000  O
  O3       1.0000 0.00816  0.99485  0.59287  Biso   1.000  O
  O4       1.0000 0.48938  0.51528  0.61780  Biso   1.000  O
  O5       1.0000 0.51062  0.01528  0.61780  Biso   1.000  O
  O6       1.0000 0.99184  0.49485  0.59287  Biso   1.000  O
  O7       1.0000 0.01062  0.01528  0.88220  Biso   1.000  O
  O8       1.0000 0.49184  0.49485  0.90713  Biso   1.000  O
  O9       1.0000 0.78743  0.75935  0.71911  Biso   1.000  O
  O10      1.0000 0.21257  0.25935  0.71911  Biso   1.000  O
  O11      1.0000 0.28743  0.75935  0.78089  Biso   1.000  O
  O12      1.0000 0.71257  0.25935  0.78089  Biso   1.000  O
  O13      1.0000 0.69682  0.76434  0.50000  Biso   1.000  O
  O14      1.0000 0.30318  0.26434  0.50000  Biso   1.000  O
  O15      1.0000 0.00816  0.99485  0.40713  Biso   1.000  O
  O16      1.0000 0.48938  0.51528  0.38220  Biso   1.000  O
  O17      1.0000 0.50816  0.99485  0.09287  Biso   1.000  O
  O18      1.0000 0.98938  0.51528  0.11780  Biso   1.000  O
  O19      1.0000 0.01062  0.01528  0.11780  Biso   1.000  O
  O20      1.0000 0.49184  0.49485  0.09287  Biso   1.000  O
  O21      1.0000 0.51062  0.01528  0.38220  Biso   1.000  O
  O22      1.0000 0.99184  0.49485  0.40713  Biso   1.000  O
  O23      1.0000 0.28743  0.75935  0.21911  Biso   1.000  O
  O24      1.0000 0.71257  0.25935  0.21911  Biso   1.000  O
  O25      1.0000 0.78743  0.75935  0.28089  Biso   1.000  O
  O26      1.0000 0.21257  0.25935  0.28089  Biso   1.000  O
  O27      1.0000 0.19682  0.76434  0.00000  Biso   1.000  O
  O28      1.0000 0.80318  0.26434  0.00000  Biso   1.000  O
