data_image0
_cell_length_a       5.63798
_cell_length_b       5.64248
_cell_length_c       17.9856
_cell_angle_alpha    90
_cell_angle_beta     90
_cell_angle_gamma    90

_symmetry_space_group_name_H-M    "P 1"
_symmetry_int_tables_number       1

loop_
  _symmetry_equiv_pos_as_xyz
  'x, y, z'

loop_
  _atom_site_label
  _atom_site_occupancy
  _atom_site_fract_x
  _atom_site_fract_y
  _atom_site_fract_z
  _atom_site_thermal_displace_type
  _atom_site_B_iso_or_equiv
  _atom_site_type_symbol
  Li1      1.0000 0.75378  0.25000  0.75000  Biso   1.000  Li
  Li2      1.0000 0.25378  0.75000  0.25000  Biso   1.000  Li
  Li3      1.0000 0.25378  0.75000  0.75000  Biso   1.000  Li
  Li4      1.0000 0.75378  0.25000  0.25000  Biso   1.000  Li
  Li5      1.0000 0.24622  0.25000  0.25000  Biso   1.000  Li
  Li6      1.0000 0.74622  0.75000  0.75000  Biso   1.000  Li
  Li7      1.0000 0.74622  0.75000  0.25000  Biso   1.000  Li
  Li8      1.0000 0.24622  0.25000  0.75000  Biso   1.000  Li
  Sr1      1.0000 0.50000  0.51746  0.00000  Biso   1.000  Sr
  Sr2      1.0000 0.50000  0.98254  0.50000  Biso   1.000  Sr
  Sr3      1.0000 0.00000  0.48254  0.50000  Biso   1.000  Sr
  Sr4      1.0000 0.00000  0.01746  0.00000  Biso   1.000  Sr
  Nb1      1.0000 0.50000  0.48235  0.38394  Biso   1.000  Nb
  Nb2      1.0000 0.50000  0.48235  0.61606  Biso   1.000  Nb
  Nb3      1.0000 0.50000  0.01765  0.88394  Biso   1.000  Nb
  Nb4      1.0000 0.50000  0.01765  0.11606  Biso   1.000  Nb
  Nb5      1.0000 0.00000  0.51765  0.88394  Biso   1.000  Nb
  Nb6      1.0000 0.00000  0.51765  0.11606  Biso   1.000  Nb
  Nb7      1.0000 0.00000  0.98235  0.38394  Biso   1.000  Nb
  Nb8      1.0000 0.00000  0.98235  0.61606  Biso   1.000  Nb
  O1       1.0000 0.75189  0.24880  0.60533  Biso   1.000  O
  O2       1.0000 0.25189  0.74880  0.39467  Biso   1.000  O
  O3       1.0000 0.25189  0.74880  0.60533  Biso   1.000  O
  O4       1.0000 0.75189  0.24880  0.39467  Biso   1.000  O
  O5       1.0000 0.24811  0.24880  0.39467  Biso   1.000  O
  O6       1.0000 0.74811  0.74880  0.60533  Biso   1.000  O
  O7       1.0000 0.74811  0.74880  0.39467  Biso   1.000  O
  O8       1.0000 0.24811  0.24880  0.60533  Biso   1.000  O
  O9       1.0000 0.74811  0.75120  0.10533  Biso   1.000  O
  O10      1.0000 0.24811  0.25120  0.89467  Biso   1.000  O
  O11      1.0000 0.24811  0.25120  0.10533  Biso   1.000  O
  O12      1.0000 0.74811  0.75120  0.89467  Biso   1.000  O
  O13      1.0000 0.25189  0.75120  0.89467  Biso   1.000  O
  O14      1.0000 0.75189  0.25120  0.10533  Biso   1.000  O
  O15      1.0000 0.75189  0.25120  0.89467  Biso   1.000  O
  O16      1.0000 0.25189  0.75120  0.10533  Biso   1.000  O
  O17      1.0000 0.50000  0.50043  0.27896  Biso   1.000  O
  O18      1.0000 0.50000  0.50043  0.72104  Biso   1.000  O
  O19      1.0000 0.50000  0.99957  0.77896  Biso   1.000  O
  O20      1.0000 0.50000  0.99957  0.22104  Biso   1.000  O
  O21      1.0000 0.00000  0.49957  0.77896  Biso   1.000  O
  O22      1.0000 0.00000  0.49957  0.22104  Biso   1.000  O
  O23      1.0000 0.00000  0.00043  0.27896  Biso   1.000  O
  O24      1.0000 0.00000  0.00043  0.72104  Biso   1.000  O
  O25      1.0000 0.50000  0.99485  0.00000  Biso   1.000  O
  O26      1.0000 0.50000  0.50515  0.50000  Biso   1.000  O
  O27      1.0000 0.00000  0.00515  0.50000  Biso   1.000  O
  O28      1.0000 0.00000  0.49485  0.00000  Biso   1.000  O
