data_image0
_cell_length_a       5.62049
_cell_length_b       5.62049
_cell_length_c       18.0717
_cell_angle_alpha    90
_cell_angle_beta     90
_cell_angle_gamma    90

_symmetry_space_group_name_H-M    "P 1"
_symmetry_int_tables_number       1

loop_
  _symmetry_equiv_pos_as_xyz
  'x, y, z'

loop_
  _atom_site_label
  _atom_site_occupancy
  _atom_site_fract_x
  _atom_site_fract_y
  _atom_site_fract_z
  _atom_site_thermal_displace_type
  _atom_site_B_iso_or_equiv
  _atom_site_type_symbol
  Li1      1.0000 0.00000  0.00000  0.26355  Biso   1.000  Li
  Li2      1.0000 0.00000  0.50000  0.75000  Biso   1.000  Li
  Li3      1.0000 0.50000  0.00000  0.75000  Biso   1.000  Li
  Li4      1.0000 0.50000  0.50000  0.23645  Biso   1.000  Li
  Li5      1.0000 0.00000  0.50000  0.25000  Biso   1.000  Li
  Li6      1.0000 0.00000  0.00000  0.73645  Biso   1.000  Li
  Li7      1.0000 0.50000  0.50000  0.76355  Biso   1.000  Li
  Li8      1.0000 0.50000  0.00000  0.25000  Biso   1.000  Li
  Sr1      1.0000 0.74387  0.25613  0.00000  Biso   1.000  Sr
  Sr2      1.0000 0.75613  0.75613  0.50000  Biso   1.000  Sr
  Sr3      1.0000 0.24387  0.24387  0.50000  Biso   1.000  Sr
  Sr4      1.0000 0.25613  0.74387  0.00000  Biso   1.000  Sr
  Nb1      1.0000 0.74754  0.25246  0.38468  Biso   1.000  Nb
  Nb2      1.0000 0.75246  0.75246  0.88468  Biso   1.000  Nb
  Nb3      1.0000 0.24754  0.24754  0.88468  Biso   1.000  Nb
  Nb4      1.0000 0.25246  0.74754  0.38468  Biso   1.000  Nb
  Nb5      1.0000 0.74754  0.25246  0.61532  Biso   1.000  Nb
  Nb6      1.0000 0.75246  0.75246  0.11532  Biso   1.000  Nb
  Nb7      1.0000 0.24754  0.24754  0.11532  Biso   1.000  Nb
  Nb8      1.0000 0.25246  0.74754  0.61532  Biso   1.000  Nb
  O1       1.0000 0.00000  0.00000  0.09088  Biso   1.000  O
  O2       1.0000 0.00000  0.50000  0.60389  Biso   1.000  O
  O3       1.0000 0.50000  0.00000  0.60389  Biso   1.000  O
  O4       1.0000 0.50000  0.50000  0.12033  Biso   1.000  O
  O5       1.0000 0.00000  0.50000  0.39611  Biso   1.000  O
  O6       1.0000 0.00000  0.00000  0.90912  Biso   1.000  O
  O7       1.0000 0.50000  0.50000  0.87967  Biso   1.000  O
  O8       1.0000 0.50000  0.00000  0.39611  Biso   1.000  O
  O9       1.0000 0.00000  0.00000  0.37967  Biso   1.000  O
  O10      1.0000 0.00000  0.50000  0.89611  Biso   1.000  O
  O11      1.0000 0.50000  0.00000  0.89611  Biso   1.000  O
  O12      1.0000 0.50000  0.50000  0.40912  Biso   1.000  O
  O13      1.0000 0.00000  0.50000  0.10389  Biso   1.000  O
  O14      1.0000 0.00000  0.00000  0.62033  Biso   1.000  O
  O15      1.0000 0.50000  0.50000  0.59088  Biso   1.000  O
  O16      1.0000 0.50000  0.00000  0.10389  Biso   1.000  O
  O17      1.0000 0.72948  0.27052  0.28063  Biso   1.000  O
  O18      1.0000 0.77052  0.77052  0.78063  Biso   1.000  O
  O19      1.0000 0.22948  0.22948  0.78063  Biso   1.000  O
  O20      1.0000 0.27052  0.72948  0.28063  Biso   1.000  O
  O21      1.0000 0.72948  0.27052  0.71937  Biso   1.000  O
  O22      1.0000 0.77052  0.77052  0.21937  Biso   1.000  O
  O23      1.0000 0.22948  0.22948  0.21937  Biso   1.000  O
  O24      1.0000 0.27052  0.72948  0.71937  Biso   1.000  O
  O25      1.0000 0.78562  0.21438  0.50000  Biso   1.000  O
  O26      1.0000 0.71438  0.71438  0.00000  Biso   1.000  O
  O27      1.0000 0.28562  0.28562  0.00000  Biso   1.000  O
  O28      1.0000 0.21438  0.78562  0.50000  Biso   1.000  O
