data_image0
_cell_length_a       5.6367
_cell_length_b       5.6266
_cell_length_c       17.9937
_cell_angle_alpha    90
_cell_angle_beta     90
_cell_angle_gamma    90

_symmetry_space_group_name_H-M    "P 1"
_symmetry_int_tables_number       1

loop_
  _symmetry_equiv_pos_as_xyz
  'x, y, z'

loop_
  _atom_site_label
  _atom_site_occupancy
  _atom_site_fract_x
  _atom_site_fract_y
  _atom_site_fract_z
  _atom_site_thermal_displace_type
  _atom_site_B_iso_or_equiv
  _atom_site_type_symbol
  Li1      1.0000 0.49350  0.00237  0.73791  Biso   1.000  Li
  Li2      1.0000 0.99350  0.49763  0.76209  Biso   1.000  Li
  Li3      1.0000 0.00650  0.99763  0.76209  Biso   1.000  Li
  Li4      1.0000 0.50650  0.50237  0.73791  Biso   1.000  Li
  Li5      1.0000 0.00650  0.99763  0.23791  Biso   1.000  Li
  Li6      1.0000 0.50650  0.50237  0.26209  Biso   1.000  Li
  Li7      1.0000 0.49350  0.00237  0.26209  Biso   1.000  Li
  Li8      1.0000 0.99350  0.49763  0.23791  Biso   1.000  Li
  Sr1      1.0000 0.25493  0.77530  0.50000  Biso   1.000  Sr
  Sr2      1.0000 0.74507  0.27530  0.50000  Biso   1.000  Sr
  Sr3      1.0000 0.75493  0.72470  0.00000  Biso   1.000  Sr
  Sr4      1.0000 0.24507  0.22470  0.00000  Biso   1.000  Sr
  Nb1      1.0000 0.75379  0.77179  0.61542  Biso   1.000  Nb
  Nb2      1.0000 0.24621  0.27179  0.61542  Biso   1.000  Nb
  Nb3      1.0000 0.25379  0.72821  0.88458  Biso   1.000  Nb
  Nb4      1.0000 0.74621  0.22821  0.88458  Biso   1.000  Nb
  Nb5      1.0000 0.25379  0.72821  0.11542  Biso   1.000  Nb
  Nb6      1.0000 0.74621  0.22821  0.11542  Biso   1.000  Nb
  Nb7      1.0000 0.75379  0.77179  0.38458  Biso   1.000  Nb
  Nb8      1.0000 0.24621  0.27179  0.38458  Biso   1.000  Nb
  O1       1.0000 0.50770  0.98612  0.90697  Biso   1.000  O
  O2       1.0000 0.98942  0.50617  0.88229  Biso   1.000  O
  O3       1.0000 0.99230  0.01388  0.59303  Biso   1.000  O
  O4       1.0000 0.51058  0.49383  0.61771  Biso   1.000  O
  O5       1.0000 0.48942  0.99383  0.61771  Biso   1.000  O
  O6       1.0000 0.00770  0.51388  0.59303  Biso   1.000  O
  O7       1.0000 0.01058  0.00617  0.88229  Biso   1.000  O
  O8       1.0000 0.49230  0.48612  0.90697  Biso   1.000  O
  O9       1.0000 0.78650  0.75064  0.71926  Biso   1.000  O
  O10      1.0000 0.21350  0.25064  0.71926  Biso   1.000  O
  O11      1.0000 0.28650  0.74936  0.78074  Biso   1.000  O
  O12      1.0000 0.71350  0.24936  0.78074  Biso   1.000  O
  O13      1.0000 0.69709  0.74536  0.50000  Biso   1.000  O
  O14      1.0000 0.30291  0.24536  0.50000  Biso   1.000  O
  O15      1.0000 0.99230  0.01388  0.40697  Biso   1.000  O
  O16      1.0000 0.51058  0.49383  0.38229  Biso   1.000  O
  O17      1.0000 0.50770  0.98612  0.09303  Biso   1.000  O
  O18      1.0000 0.98942  0.50617  0.11771  Biso   1.000  O
  O19      1.0000 0.01058  0.00617  0.11771  Biso   1.000  O
  O20      1.0000 0.49230  0.48612  0.09303  Biso   1.000  O
  O21      1.0000 0.48942  0.99383  0.38229  Biso   1.000  O
  O22      1.0000 0.00770  0.51388  0.40697  Biso   1.000  O
  O23      1.0000 0.28650  0.74936  0.21926  Biso   1.000  O
  O24      1.0000 0.71350  0.24936  0.21926  Biso   1.000  O
  O25      1.0000 0.78650  0.75064  0.28074  Biso   1.000  O
  O26      1.0000 0.21350  0.25064  0.28074  Biso   1.000  O
  O27      1.0000 0.19709  0.75464  0.00000  Biso   1.000  O
  O28      1.0000 0.80291  0.25464  0.00000  Biso   1.000  O
